<?xml version="1.0" encoding="UTF-8"?>
<nodes xmlns:xsi="http://www.w3.org/2001/XMLSchema-instance" xsi:noNamespaceSchemaLocation="http://sumo.dlr.de/xsd/nodes_file.xsd">
    <!-- Horizontal nodes -->
    <node id="J1" x="0.00" y="500.00" type="priority"/>
    <node id="J2" x="500.00" y="500.00" type="traffic_light"/>
    <node id="J3" x="1000.00" y="500.00" type="traffic_light"/>
    <node id="J4" x="1500.00" y="500.00" type="priority"/>
    <node id="J5" x="2000.00" y="500.00" type="priority"/>
    
    <!-- Vertical nodes for J2 -->
    <node id="J6" x="500.00" y="0.00" type="priority"/>
    <node id="J7" x="500.00" y="1000.00" type="priority"/>
    
    <!-- Vertical nodes for J3 -->
    <node id="J8" x="1000.00" y="0.00" type="priority"/>
    <node id="J9" x="1000.00" y="1000.00" type="priority"/>
</nodes>
