<?xml version="1.0" encoding="UTF-8"?>
<nodes xmlns:xsi="http://www.w3.org/2001/XMLSchema-instance" xsi:noNamespaceSchemaLocation="http://sumo.dlr.de/xsd/nodes_file.xsd">
    <!-- Main intersections -->
    <node id="J1" x="0.00" y="500.00" type="priority"/>
    <node id="J2" x="500.00" y="500.00" type="traffic_light"/>
    <node id="J3" x="1000.00" y="500.00" type="traffic_light"/>
    
    <!-- North endpoints -->
    <node id="N2" x="500.00" y="1000.00" type="priority"/>
    <node id="N3" x="1000.00" y="1000.00" type="priority"/>
    
    <!-- South endpoints -->
    <node id="S2" x="500.00" y="0.00" type="priority"/>
    <node id="S3" x="1000.00" y="0.00" type="priority"/>
</nodes>