<?xml version="1.0" encoding="UTF-8"?>
<net version="1.20" junctionCornerDetail="5" limitTurnSpeed="5.50" xmlns:xsi="http://www.w3.org/2001/XMLSchema-instance" xsi:noNamespaceSchemaLocation="http://sumo.dlr.de/xsd/net_file.xsd">

    <location netOffset="0.00,0.00" convBoundary="0.00,0.00,1000.00,500.00" origBoundary="-10000000000.00,-10000000000.00,10000000000.00,10000000000.00" projParameter="!"/>

    <!-- Simple straight road -->
    <edge id="E1" from="J1" to="J2" priority="1">
        <lane id="E1_0" index="0" speed="13.89" length="1000.00" shape="0.00,250.00 1000.00,250.00"/>
    </edge>

    <!-- Junctions -->
    <junction id="J1" type="dead_end" x="0.00" y="250.00" incLanes="" intLanes="" shape="0.00,253.20 0.00,246.80"/>
    <junction id="J2" type="dead_end" x="1000.00" y="250.00" incLanes="E1_0" intLanes="" shape="1000.00,246.80 1000.00,253.20"/>

</net>