<?xml version="1.0" encoding="UTF-8"?>
<routes xmlns:xsi="http://www.w3.org/2001/XMLSchema-instance" xsi:noNamespaceSchemaLocation="http://sumo.dlr.de/xsd/routes_file.xsd">
    
    <vType id="car" accel="2.6" decel="4.5" sigma="0.5" length="5.0" minGap="2.5" maxSpeed="50.0" color="blue"/>
    
    <route id="route1" edges="E1"/>
    
    <vehicle id="car1" type="car" route="route1" depart="1"/>
    <vehicle id="car2" type="car" route="route1" depart="3"/>
    <vehicle id="car3" type="car" route="route1" depart="5"/>

</routes>