<?xml version="1.0" encoding="UTF-8"?>
<tlLogics xmlns:xsi="http://www.w3.org/2001/XMLSchema-instance" xsi:noNamespaceSchemaLocation="http://sumo.dlr.de/xsd/tllogic_file.xsd">
    <tlLogic id="J2" type="static" programID="0" offset="0">
        <!-- One direction at a time (4 incoming links expected) -->
        <phase duration="30" state="Grrr"/>
        <phase duration="3"  state="yrrr"/>
    <phase duration="30" state="rGrr"/>
        <phase duration="3"  state="ryrr"/>
        <phase duration="30" state="rrGr"/>
        <phase duration="3"  state="rryr"/>
        <phase duration="30" state="rrrG"/>
        <phase duration="3"  state="rrry"/>
    </tlLogic>

    <tlLogic id="J3" type="static" programID="0" offset="0">
        <!-- One direction at a time (4 incoming links expected) -->
        <phase duration="30" state="Grrr"/>
        <phase duration="3"  state="yrrr"/>
        <phase duration="30" state="rGrr"/>
        <phase duration="3"  state="ryrr"/>
        <phase duration="30" state="rrGr"/>
        <phase duration="3"  state="rryr"/>
        <phase duration="30" state="rrrG"/>
        <phase duration="3"  state="rrry"/>
    </tlLogic>
</tlLogics>