<?xml version="1.0" encoding="UTF-8"?>
<configuration xmlns:xsi="http://www.w3.org/2001/XMLSchema-instance" xsi:noNamespaceSchemaLocation="http://sumo.dlr.de/xsd/sumoConfiguration.xsd">

    <input>
        <net-file value="maps/test_network.net.xml"/>
        <route-files value="maps/test_routes.rou.xml"/>
    </input>

    <time>
        <begin value="0"/>
        <end value="10"/>
    </time>

</configuration>